---------- Begin Simulation Statistics ----------
simSeconds                                   0.006892                       # Number of seconds simulated (Second)
simTicks                                 6892345600                       # Number of ticks simulated (Tick)
finalTick                                6892345600                       # Number of ticks from beginning of simulation (Tick)
simFreq                              1000000000000                       # The number of ticks per simulated second ((Tick/Second))
hostSeconds                                 298.76                       # Real time elapsed on the host (Second)
hostTickRate                          23071234898                       # The number of ticks simulated per host second (ticks/s) ((Tick/Second))
hostMemory                                 618496                       # Number of bytes of host memory used (Byte)
simInsts                                  2659834                       # Number of instructions simulated (Count)
simOps                                    3245789                       # Number of ops (including micro ops) simulated (Count)
hostInstRate                                 8903                       # Simulator instruction rate (inst/s) ((Count/Second))
hostOpRate                                  10867                       # Simulator op (including micro ops) rate (op/s) ((Count/Second))

---------- Begin System Configuration ----------
[system]
type=System
children=clk_domain cpu dvfs_handler membus mem_ctrl workload
cache_line_size=64
clk_domain=system.clk_domain
mem_mode=timing
mem_ranges=0:536870912

[system.cpu]
type=TimingSimpleCPU
children=dcache icache l2cache
cpu_id=0
numThreads=1
clk_domain=system.cpu.clk_domain
voltage_domain=system.cpu.voltage_domain

[system.cpu.clk_domain]
clock=2500                       # Clock period in ticks (400MHz = 2.5ns = 2500ps)
voltage_domain=system.cpu.voltage_domain

[system.cpu.voltage_domain]
voltage=0.9                       # Voltage in Volts

[system.cpu.icache]
type=Cache
size=32768                       # 32KB I-cache
assoc=4                          # 4-way set-associative
tag_latency=1
data_latency=1
response_latency=1

[system.cpu.dcache]
type=Cache
size=32768                       # 32KB D-cache
assoc=4                          # 4-way set-associative
tag_latency=1
data_latency=1
response_latency=1

[system.cpu.l2cache]
type=Cache
size=131072                      # 128KB L2 cache
assoc=8                          # 8-way set-associative
tag_latency=10
data_latency=10
response_latency=1

---------- Begin CPU Statistics ----------
system.cpu.numCycles                      2756938                       # Number of cpu cycles simulated (Cycle)
system.cpu.numWorkItemsStarted                   0                       # Number of work items this cpu started (Count)
system.cpu.numWorkItemsCompleted                 0                       # Number of work items this cpu completed (Count)
system.cpu.committedInsts                  2659834                       # Number of instructions committed (Count)
system.cpu.committedOps                    3245789                       # Number of ops (including micro ops) committed (Count)
system.cpu.cpi                               1.501                       # CPI: cycles per instruction (Cycle/Count)
system.cpu.ipc                               0.666                       # IPC: instructions per cycle (Count/Cycle)
system.cpu.int_regfile_reads               8923456                       # Number of integer regfile reads (Count)
system.cpu.int_regfile_writes              4198723                       # Number of integer regfile writes (Count)
system.cpu.num_mem_refs                    1234567                       # Number of memory references (Count)
system.cpu.num_load_insts                   823456                       # Number of load instructions (Count)
system.cpu.num_store_insts                  411111                       # Number of store instructions (Count)
system.cpu.num_idle_cycles                       0                       # Number of idle cycles (Cycle)
system.cpu.num_busy_cycles                 2756938                       # Number of busy cycles (Cycle)
system.cpu.not_idle_fraction                  1.00                       # Percentage of non-idle cycles (Ratio)
system.cpu.idle_fraction                      0.00                       # Percentage of idle cycles (Ratio)
system.cpu.num_int_alu_accesses            3187234                       # Number of integer alu accesses (Count)
system.cpu.num_fp_alu_accesses                   0                       # Number of float alu accesses (Count)
system.cpu.num_func_calls                    67823                       # Number of times a function call or return occured (Count)
system.cpu.num_conditional_control_insts   398712                       # Number of instructions that are conditional controls (Count)
system.cpu.num_int_insts                   2659834                       # Number of integer instructions (Count)
system.cpu.num_fp_insts                          0                       # Number of float instructions (Count)
system.cpu.num_int_register_reads          8923456                       # Number of times the integer registers were read (Count)
system.cpu.num_int_register_writes         4198723                       # Number of times the integer registers were written (Count)
system.cpu.num_mem_read                     823456                       # Number of memory read operations (Count)
system.cpu.num_mem_write                    411111                       # Number of memory write operations (Count)

---------- Begin I-Cache Statistics ----------
system.cpu.icache.overall_hits::total      2532189                       # Number of overall hits (Count)
system.cpu.icache.overall_misses::total     127645                       # Number of overall misses (Count)
system.cpu.icache.overall_miss_latency::total    2042320000                       # Number of overall miss cycles (Tick)
system.cpu.icache.overall_accesses::total  2659834                       # Number of overall (read+write) accesses (Count)
system.cpu.icache.overall_miss_rate::total       0.0480                       # Miss rate for overall accesses (Ratio)
system.cpu.icache.overall_hits_rate::total       0.9520                       # Hit rate for overall accesses (Ratio)
system.cpu.icache.overall_avg_miss_latency::total    16.001                       # Average overall miss latency (Cycle)
system.cpu.icache.blocked_cycles::no_mshrs            0                       # Number of cycles blocked (Cycle)
system.cpu.icache.blocked_cycles::no_targets         0                       # Number of cycles blocked (Cycle)
system.cpu.icache.demand_hits::cpu.inst    2532189                       # Number of demand hits (Count)
system.cpu.icache.demand_misses::cpu.inst   127645                       # Number of demand misses (Count)
system.cpu.icache.demand_miss_latency::cpu.inst   2042320000                       # Number of demand miss cycles (Tick)
system.cpu.icache.demand_accesses::cpu.inst  2659834                       # Number of demand accesses (Count)
system.cpu.icache.demand_miss_rate::cpu.inst       0.0480                       # Miss rate for demand accesses (Ratio)
system.cpu.icache.demand_avg_miss_latency::cpu.inst    16.001                       # Average miss latency for demand accesses (Cycle)

---------- Begin D-Cache Statistics ----------
system.cpu.dcache.overall_hits::total      1188901                       # Number of overall hits (Count)
system.cpu.dcache.overall_misses::total      45666                       # Number of overall misses (Count)
system.cpu.dcache.overall_miss_latency::total    730656000                       # Number of overall miss cycles (Tick)
system.cpu.dcache.overall_accesses::total  1234567                       # Number of overall (read+write) accesses (Count)
system.cpu.dcache.overall_miss_rate::total       0.0370                       # Miss rate for overall accesses (Ratio)
system.cpu.dcache.overall_hits_rate::total       0.9630                       # Hit rate for overall accesses (Ratio)
system.cpu.dcache.overall_avg_miss_latency::total    16.001                       # Average overall miss latency (Cycle)
system.cpu.dcache.blocked_cycles::no_mshrs            0                       # Number of cycles blocked (Cycle)
system.cpu.dcache.blocked_cycles::no_targets         0                       # Number of cycles blocked (Cycle)
system.cpu.dcache.demand_hits::cpu.data    1188901                       # Number of demand hits (Count)
system.cpu.dcache.demand_misses::cpu.data    45666                       # Number of demand misses (Count)
system.cpu.dcache.demand_miss_latency::cpu.data    730656000                       # Number of demand miss cycles (Tick)
system.cpu.dcache.demand_accesses::cpu.data  1234567                       # Number of demand accesses (Count)
system.cpu.dcache.demand_miss_rate::cpu.data       0.0370                       # Miss rate for demand accesses (Ratio)
system.cpu.dcache.demand_avg_miss_latency::cpu.data    16.001                       # Average miss latency for demand accesses (Cycle)

---------- Begin L2-Cache Statistics ----------
system.cpu.l2cache.overall_hits::total     165789                       # Number of overall hits (Count)
system.cpu.l2cache.overall_misses::total     7522                       # Number of overall misses (Count)
system.cpu.l2cache.overall_miss_latency::total    300880000                       # Number of overall miss cycles (Tick)
system.cpu.l2cache.overall_accesses::total  173311                       # Number of overall (read+write) accesses (Count)
system.cpu.l2cache.overall_miss_rate::total       0.0434                       # Miss rate for overall accesses (Ratio)
system.cpu.l2cache.overall_hits_rate::total       0.9566                       # Hit rate for overall accesses (Ratio)
system.cpu.l2cache.overall_avg_miss_latency::total    40.001                       # Average overall miss latency (Cycle)
system.cpu.l2cache.demand_hits::total       165789                       # Number of demand hits (Count)
system.cpu.l2cache.demand_misses::total       7522                       # Number of demand misses (Count)
system.cpu.l2cache.demand_accesses::total   173311                       # Number of demand accesses (Count)

---------- Begin Memory Controller Statistics ----------
system.mem_ctrl.num_reads::cpu.inst           4789                       # Number of read requests responded to by this memory (Count)
system.mem_ctrl.num_reads::cpu.data           2733                       # Number of read requests responded to by this memory (Count)
system.mem_ctrl.num_reads::total              7522                       # Number of read requests responded to by this memory (Count)
system.mem_ctrl.num_writes::cpu.data          1678                       # Number of write requests responded to by this memory (Count)
system.mem_ctrl.num_writes::total             1678                       # Number of write requests responded to by this memory (Count)
system.mem_ctrl.bw_read::cpu.inst          694823                       # Total read bandwidth from this memory (bytes/s) (Byte/Second)
system.mem_ctrl.bw_read::cpu.data          396534                       # Total read bandwidth from this memory (bytes/s) (Byte/Second)
system.mem_ctrl.bw_read::total            1091357                       # Total read bandwidth from this memory (bytes/s) (Byte/Second)
system.mem_ctrl.bw_write::cpu.data         243445                       # Total write bandwidth from this memory (bytes/s) (Byte/Second)
system.mem_ctrl.bw_write::total            243445                       # Total write bandwidth from this memory (bytes/s) (Byte/Second)
system.mem_ctrl.bw_total::cpu.inst         694823                       # Total bandwidth from this memory (bytes/s) (Byte/Second)
system.mem_ctrl.bw_total::cpu.data         639979                       # Total bandwidth from this memory (bytes/s) (Byte/Second)
system.mem_ctrl.bw_total::total           1334802                       # Total bandwidth from this memory (bytes/s) (Byte/Second)

---------- Begin Power Statistics ----------
system.cpu.power_model.static_power       810000000.0                       # Static power for this power state (pW)
system.cpu.power_model.dynamic_power     1351600000.0                       # Dynamic power for this power state (pW)
system.cpu.power_model.total_power       2161600000.0                       # Total power for this power state (pW)

system.cpu.icache.power_model.static_power  162000000.0                       # I-cache static power (pW)
system.cpu.icache.power_model.dynamic_power  461200000.0                       # I-cache dynamic power (pW)
system.cpu.icache.power_model.total_power    623200000.0                       # I-cache total power (pW)

system.cpu.dcache.power_model.static_power  162000000.0                       # D-cache static power (pW)
system.cpu.dcache.power_model.dynamic_power  461200000.0                       # D-cache dynamic power (pW)
system.cpu.dcache.power_model.total_power    623200000.0                       # D-cache total power (pW)

system.cpu.l2cache.power_model.static_power  324000000.0                       # L2-cache static power (pW)
system.cpu.l2cache.power_model.dynamic_power  76800000.0                       # L2-cache dynamic power (pW)
system.cpu.l2cache.power_model.total_power   400800000.0                       # L2-cache total power (pW)

system.clk_network.power_model.static_power   32400000.0                       # Clock network static power (pW)
system.clk_network.power_model.dynamic_power  167600000.0                       # Clock network dynamic power (pW)
system.clk_network.power_model.total_power    200000000.0                       # Clock network total power (pW)

---------- Power Breakdown by Component ----------
system.power_breakdown.core_pipeline         45.1%                       # Core pipeline power fraction
system.power_breakdown.icache                13.0%                       # Instruction cache power fraction
system.power_breakdown.dcache                13.0%                       # Data cache power fraction
system.power_breakdown.l2cache                8.3%                       # L2 cache power fraction
system.power_breakdown.memory                12.4%                       # Memory system power fraction
system.power_breakdown.clock_network          4.2%                       # Clock network power fraction
system.power_breakdown.other                  4.0%                       # Other components power fraction

---------- Energy Statistics ----------
system.cpu.total_energy                14898.456 mJ                       # Total energy consumed (millijoules)
system.cpu.energy_per_inst              5.602 uJ                       # Energy per instruction (microjoules)
system.cpu.avg_power                    2161.6 mW                       # Average power consumption (milliwatts)
system.cpu.peak_power                   2810.1 mW                       # Peak power consumption (milliwatts)

---------- End Simulation Statistics ----------
